Circuit: * C:\Users\sohnr\OneDrive\Desktop\ECE 421 - Analog IC Desing 1\Assignments\Final Project\ECE421FinalProjectV2.asc

WARNING: Less than two connections to node N015.  This node is used by V3.
Direct Newton iteration for .op point succeeded.

Date: Mon Dec 07 20:16:59 2020
Total elapsed time: 0.079 seconds.

tnom = 27
temp = 27
method = modified trap
totiter = 4989
traniter = 4979
tranpoints = 1782
accept = 1509
rejected = 273
matrix size = 31
fillins = 34
solver = Normal
Matrix Compiler1: 3.46 KB object code size  0.9/0.5/[0.4]
Matrix Compiler2: 3.27 KB object code size  0.4/0.7/[0.4]

